ipss.test.plugin.core/testData/ucte/AusPower_TestCase_Xfr.uct
##C 2007.05.01
##C----Knoteninformationen--------------------------------------------------------
         1         2         3         4         5         6         7         8         9        10        11
12345678901234567890123456789012345678901234567890123456789012345678901234567890123456789012345678901234567890
<Knoten> <Knotenname> * * < Spg> <PLast> <QLast> <PEin > <QEin > <PMin > <PMax > <QMin > <QMax > <Sta> <PPrim>
##N 
##ZAA 
A1    1                 0        280.000 .000000 .000000 .000000               
A2    1                 0        .000000 .000000 -150.00 .000000                
A3    1                 0        200.000 .000000 .000000 .000000                
A4    1                 0        300.000 .000000 .000000 .000000                
A5    1                 0        .000000 .000000 -65.000 .000000                
A6    1                 0        .000000 .000000 -65.000 .000000                
##ZBB 
B1    1                 0        30.0000 .000000 .000000 .000000                
B2    1                 0        .000000 .000000 -130.00 .000000                
B3    1                 0        .000000 .000000 -200.00 .000000                
B4    1                 3 405.00 70.0000 .000000 .000000 .000000                
B5    1                 0        80.0000 .000000 .000000 .000000                
##ZCC
C1    1                 0        .000000 .000000 -190.00 .000000                
C2    1                 0        320.000 .000000 .000000 .000000                
C3    1                 0        .000000 .000000 -10.000 .000000  
C4    1                 0        .000000 .000000 -120.00 .000000              
##ZDD
D1    1                 0        .000000 .000000 -200.00 .000000                
D2    1                 0        .000000 .000000 -300.00 .000000 
D3    2                 0        150.000 .000000 .000000 .000000                
##C-----Leitungen-------------------------------------------
         1         2         3         4         5         6
123456789012345678901234567890123456789012345678901234567890
<  Kn1 > <  Kn2 > O E R(Ohm) X(Ohm) C (miuS) Itherm  
##L 
A1    1  A2    1  1 0 1.3600 19.350 240.9601    480 
A1    1  A6    1  1 0 1.3600 19.350 240.9601    480 
A1    1  B1    1  1 0 2.5560 36.900 431.0265    360 
A2    1  A3    1  1 0 1.5640 22.630 264.4906    480
A2    1  A6    1  1 0 .30300 4.3690 51.05088    950
A3    1  A4    1  1 0 2.7740 38.660 481.9203    480 
A3    1  A5    1  1 0 2.2540 32.530 380.1327    360  
A4    1  A5    1  1 0 1.5640 22.630 264.4906    480 
A4    1  C1    1  1 0 1.8460 26.760 311.6145    480 
A5    1  C3    1  1 0 1.8460 26.760 311.6145    480 
A6    1  C1    1  1 0 2.4980 31.620 426.3141    430 
A6    1  B2    1  1 0 2.4980 31.620 426.3141    430 
B1    1  B2    1  1 0 .78000 20.670 266.9411    830
B1    1  B3    1  1 0 .77700 20.670 266.9411    830
B2    1  B4    1  1 0 1.0395 14.785 172.4734    340 
B3    1  B4    1  1 0 .72400 9.0600 105.9973    300 
B3    1  B5    1  1 0 .72400 9.0600 105.9973    300 
B3    1  C2    1  1 0 .72400 9.0600 105.9973    400 
B4    1  C1    1  1 0 .99100 14.270 168.7035    410
B5    1  C2    1  1 0 1.3325 10.640 177.9712    340 
C1    1  C2    1  1 0 .83300 11.400 134.8528    400 
C1    1  C3    1  1 0 .83300 11.400 134.8528    300 
C2    1  D1    1  1 0 1.0240 14.410 337.7212    480
C3    1  D2    1  1 0 1.0240 14.410 337.7212    430
C1    1  C4    1  1 0 .75000 20.670 266.9411    830
C3    1  C4    1  1 0 .83300 11.400 134.8528    400
C4    1  D2    1  1 0 .78000 20.670 266.9411    830
D1    1  D2    1  1 0 1.0240 14.410 337.7212    300
##C-----Transformatoren mit ESB-Daten-------------------------------------------
         1         2         3         4         5         6         7         8
12345678901234567890123456789012345678901234567890123456789012345678901234567890
<  Kn1 > <Kn2   > O E Bem1  Bem2  <Sn > < R  > <  X > B (miuS) C miuS < Ith> Name
##T 
D1    1  D3    2  1 0 400.  230.  600.0 .20000 15.000 -16.0000 5.0000   1000 
D2    1  D3    2  1 0 400.  230.  600.0 .10000 10.000 -10.0000 9.9999   1000 
